*SOILS : Kattara research Station, Sharkyia, Egypt

*ZUMC920001  Ismailia    S        210  Sandy
@SITE        COUNTRY          LAT     LONG SCS FAMILY
 Khattare    Egypt           30.58   32.23 FINE-LOAMY, MIXED (CALCAREOUS), HYPERTHERMIC TYPIC
@ SCOM  SALB  SLU1  SLDR  SLRO  SLNF  SLPF  SMHB  SMPX  SMKE
     Y   .17    12    .5    83     1    .5   -99   -99   -99
@  SLB  SLMH  SLLL  SDUL  SSAT  SRGF  SSKS  SBDM  SLOC  SLCL  SLSI  SLCF  SLNI  SLHW  SLHB  SCEC  SADC
     5    AP  .041  .089  .375     1   4.3   1.6    .2     2     5     0   -99   8.5   -99  25.5   -99
    15    AP  .041  .089  .364  .741   4.3  1.63   .19     2     5     0   -99   8.5   -99  25.5   -99
    30    AP  .041  .088  .364  .607   4.3  1.63   .17     2     5     0   -99   8.5   -99  25.5   -99
    50    C1   .04  .087  .404  .449   4.3  1.52   .15     2     5     0   -99   8.6   -99  24.5   -99
    60    C1  .039  .085  .404  .301   4.3  1.52   .12     2     5     0   -99   8.6   -99  23.5   -99
    70    C1  .038  .083  .401  .301   4.3  1.53   .09     2     5     0   -99   8.6   -99  23.5   -99
    90    C2  .038  .082  .405  .183   4.3  1.52   .06     2     5     0   -99   8.6   -99  20.7   -99
   110    C2  .037  .081  .405    .1   4.3  1.52   .04     2     5     0   -99   8.6   -99  17.3   -99
   120    C2  .037  .081  .387    .1   4.3  1.57   .04     2     5     0   -99   8.6   -99  17.3   -99
   130    C2  .037   .08  .387    .1   4.3  1.57   .03     2     5     0   -99   8.6   -99  17.3   -99
   150    C2  .037   .08  .387  .055   4.3  1.57   .03     2     5     0   -99   8.6   -99  13.8   -99
   170    C2  .037   .08  .387     0   4.3  1.57   .03     2     5     0   -99   8.6   -99  13.8   -99
   190    C2  .037   .08  .387     0   4.3  1.57   .02     2     5     0   -99   8.6   -99  12.4   -99
   210    C2  .036  .079  .387     0   4.3  1.57   .01     2     5     0   -99   8.6   -99  12.4   -99
